*SPEF "IEEE 1481-1998"
*DESIGN "mult_seq"
*DATE "Mon Aug  1 10:17:47 2022"
*VENDOR "Cadence Design Systems, Inc."
*PROGRAM "Innovus"
*VERSION "19.18-s072_1"
*DESIGN_FLOW "COUPLING C" "PIN_CAP NONE" "NAME_SCOPE LOCAL"
*DIVIDER /
*DELIMITER :
*BUS_DELIMITER []
*T_UNIT 1 NS
*C_UNIT 1 PF
*R_UNIT 1 OHM
*L_UNIT 1 HENRY

// MMMC spef file for corner 'rc_typ'

*NAME_MAP

*1 a[3]
*2 a[2]
*3 a[1]
*4 a[0]
*5 b[3]
*6 b[2]
*7 b[1]
*8 b[0]
*9 clk
*10 reset
*11 en
*12 sum_q[7]
*13 sum_q[6]
*14 sum_q[5]
*15 sum_q[4]
*16 sum_q[3]
*17 sum_q[2]
*18 sum_q[1]
*19 sum_q[0]
*20 FE_PHN22_sum_q_7
*21 FE_PHN21_sum_q_2
*22 FE_PHN10_sum_q_5
*23 FE_PHN9_sum_q_6
*24 FE_PHN1_sum_q_1
*25 sum[7]
*26 sum[6]
*27 sum[5]
*28 sum[4]
*29 sum[3]
*30 sum[2]
*31 sum[1]
*32 sum[0]
*33 csa_tree_add1_add_30_16_groupi_n_0
*34 csa_tree_add1_add_30_16_groupi_n_1
*35 csa_tree_add1_add_30_16_groupi_n_4
*36 csa_tree_add1_add_30_16_groupi_n_5
*37 csa_tree_add1_add_30_16_groupi_n_6
*38 csa_tree_add1_add_30_16_groupi_n_7
*39 csa_tree_add1_add_30_16_groupi_n_8
*40 csa_tree_add1_add_30_16_groupi_n_9
*41 csa_tree_add1_add_30_16_groupi_n_10
*42 csa_tree_add1_add_30_16_groupi_n_11
*43 csa_tree_add1_add_30_16_groupi_n_12
*44 csa_tree_add1_add_30_16_groupi_n_13
*45 csa_tree_add1_add_30_16_groupi_n_14
*46 csa_tree_add1_add_30_16_groupi_n_15
*47 csa_tree_add1_add_30_16_groupi_n_16
*48 csa_tree_add1_add_30_16_groupi_n_17
*49 csa_tree_add1_add_30_16_groupi_n_18
*50 csa_tree_add1_add_30_16_groupi_n_19
*51 csa_tree_add1_add_30_16_groupi_n_20
*52 csa_tree_add1_add_30_16_groupi_n_21
*53 csa_tree_add1_add_30_16_groupi_n_23
*54 csa_tree_add1_add_30_16_groupi_n_24
*55 csa_tree_add1_add_30_16_groupi_n_25
*56 csa_tree_add1_add_30_16_groupi_n_26
*57 csa_tree_add1_add_30_16_groupi_n_27
*58 csa_tree_add1_add_30_16_groupi_n_28
*59 csa_tree_add1_add_30_16_groupi_n_30
*60 csa_tree_add1_add_30_16_groupi_n_31
*61 csa_tree_add1_add_30_16_groupi_n_32
*62 csa_tree_add1_add_30_16_groupi_n_33
*63 csa_tree_add1_add_30_16_groupi_n_34
*64 csa_tree_add1_add_30_16_groupi_n_35
*65 csa_tree_add1_add_30_16_groupi_n_36
*66 csa_tree_add1_add_30_16_groupi_n_39
*67 csa_tree_add1_add_30_16_groupi_n_40
*68 csa_tree_add1_add_30_16_groupi_n_41
*69 csa_tree_add1_add_30_16_groupi_n_42
*70 csa_tree_add1_add_30_16_groupi_n_43
*71 csa_tree_add1_add_30_16_groupi_n_44
*72 csa_tree_add1_add_30_16_groupi_n_45
*73 csa_tree_add1_add_30_16_groupi_n_46
*74 csa_tree_add1_add_30_16_groupi_n_47
*75 csa_tree_add1_add_30_16_groupi_n_48
*76 csa_tree_add1_add_30_16_groupi_n_49
*77 csa_tree_add1_add_30_16_groupi_n_50
*78 csa_tree_add1_add_30_16_groupi_n_52
*79 csa_tree_add1_add_30_16_groupi_n_53
*80 csa_tree_add1_add_30_16_groupi_n_54
*81 csa_tree_add1_add_30_16_groupi_n_55
*82 csa_tree_add1_add_30_16_groupi_n_56
*83 csa_tree_add1_add_30_16_groupi_n_57
*84 csa_tree_add1_add_30_16_groupi_n_59
*85 csa_tree_add1_add_30_16_groupi_n_60
*86 csa_tree_add1_add_30_16_groupi_n_62
*87 csa_tree_add1_add_30_16_groupi_n_63
*88 csa_tree_add1_add_30_16_groupi_n_64
*89 csa_tree_add1_add_30_16_groupi_n_65
*90 csa_tree_add1_add_30_16_groupi_n_66
*91 csa_tree_add1_add_30_16_groupi_n_68
*92 csa_tree_add1_add_30_16_groupi_n_69
*93 csa_tree_add1_add_30_16_groupi_n_70
*94 csa_tree_add1_add_30_16_groupi_n_71
*95 csa_tree_add1_add_30_16_groupi_n_72
*96 csa_tree_add1_add_30_16_groupi_n_73
*97 csa_tree_add1_add_30_16_groupi_n_74
*98 csa_tree_add1_add_30_16_groupi_n_75
*99 csa_tree_add1_add_30_16_groupi_n_76
*100 csa_tree_add1_add_30_16_groupi_n_77
*101 csa_tree_add1_add_30_16_groupi_n_78
*102 csa_tree_add1_add_30_16_groupi_n_79
*103 csa_tree_add1_add_30_16_groupi_n_80
*104 csa_tree_add1_add_30_16_groupi_n_81
*105 csa_tree_add1_add_30_16_groupi_n_82
*106 csa_tree_add1_add_30_16_groupi_n_84
*107 csa_tree_add1_add_30_16_groupi_n_85
*108 csa_tree_add1_add_30_16_groupi_n_87
*109 csa_tree_add1_add_30_16_groupi_n_89
*110 csa_tree_add1_add_30_16_groupi_n_91
*111 csa_tree_add1_add_30_16_groupi_n_93
*112 n_111
*113 n_112
*114 n_113
*115 n_114
*116 reg1/FE_PHN39_sum_q_7
*117 reg1/FE_PHN38_sum_q_1
*118 reg1/FE_PHN37_n_4
*119 reg1/FE_PHN36_q_0_58
*120 reg1/FE_PHN35_sum_q_1
*121 reg1/FE_PHN34_sum_q_6
*122 reg1/FE_PHN33_sum_q_5
*123 reg1/FE_PHN32_q_4_62
*124 reg1/FE_PHN31_n_7
*125 reg1/FE_PHN30_sum_q_6
*126 reg1/FE_PHN29_n_9
*127 reg1/FE_PHN28_sum_q_7
*128 reg1/FE_PHN27_sum_q_5
*129 reg1/FE_PHN26_n_10
*130 reg1/FE_PHN25_sum_q_3
*131 reg1/FE_PHN24_n_9
*132 reg1/FE_PHN23_n_7
*133 reg1/FE_PHN20_sum_q_6
*134 reg1/FE_PHN19_n_10
*135 reg1/FE_PHN18_sum_q_5
*136 reg1/FE_PHN17_sum_q_4
*137 reg1/FE_PHN16_sum_q_3
*138 reg1/FE_PHN15_n_18
*139 reg1/FE_PHN14_n_11
*140 reg1/FE_PHN13_n_9
*141 reg1/FE_PHN12_n_4
*142 reg1/FE_PHN11_n_7
*143 reg1/FE_PHN8_q_0_58
*144 reg1/FE_PHN7_n_18
*145 reg1/FE_PHN6_n_4
*146 reg1/FE_PHN5_n_5
*147 reg1/FE_PHN4_n_6
*148 reg1/FE_PHN3_n_9
*149 reg1/FE_PHN2_n_11
*150 reg1/FE_PHN0_q_0_58
*151 reg1/UNCONNECTED
*152 reg1/UNCONNECTED0
*153 reg1/UNCONNECTED1
*154 reg1/UNCONNECTED2
*155 reg1/UNCONNECTED3
*156 reg1/UNCONNECTED4
*157 reg1/UNCONNECTED5
*158 reg1/UNCONNECTED6
*159 reg1/n_0
*160 reg1/n_4
*161 reg1/n_5
*162 reg1/n_6
*163 reg1/n_7
*164 reg1/n_8
*165 reg1/n_9
*166 reg1/n_10
*167 reg1/n_11
*168 reg1/n_12
*169 reg1/n_13
*170 reg1/n_14
*171 reg1/n_15
*172 reg1/n_16
*173 reg1/n_17
*174 reg1/n_18
*175 reg1/n_19
*176 reg1/q\[0\]_58
*177 reg1/q\[3\]_61
*178 reg1/q\[4\]_62
*179 reg1/FE_PHC39_sum_q_7
*180 reg1/FE_PHC38_sum_q_1
*181 reg1/FE_PHC37_n_4
*182 reg1/FE_PHC36_q_0_58
*183 reg1/FE_PHC35_sum_q_1
*184 reg1/FE_PHC34_sum_q_6
*185 reg1/FE_PHC33_sum_q_5
*186 reg1/FE_PHC32_q_4_62
*187 reg1/FE_PHC31_n_7
*188 reg1/FE_PHC30_sum_q_6
*189 reg1/FE_PHC29_n_9
*190 reg1/FE_PHC28_sum_q_7
*191 reg1/FE_PHC27_sum_q_5
*192 reg1/FE_PHC26_n_10
*193 reg1/FE_PHC25_sum_q_3
*194 reg1/FE_PHC24_n_9
*195 reg1/FE_PHC23_n_7
*196 reg1/FE_PHC22_sum_q_7
*197 reg1/FE_PHC21_sum_q_2
*198 reg1/FE_PHC20_sum_q_6
*199 reg1/FE_PHC19_n_10
*200 reg1/FE_PHC18_sum_q_5
*201 reg1/FE_PHC17_sum_q_4
*202 reg1/FE_PHC16_sum_q_3
*203 reg1/FE_PHC15_n_18
*204 reg1/FE_PHC14_n_11
*205 reg1/FE_PHC13_n_9
*206 reg1/FE_PHC12_n_4
*207 reg1/FE_PHC11_n_7
*208 reg1/FE_PHC10_sum_q_5
*209 reg1/FE_PHC9_sum_q_6
*210 reg1/FE_PHC8_q_0_58
*211 reg1/FE_PHC7_n_18
*212 reg1/FE_PHC6_n_4
*213 reg1/FE_PHC5_n_5
*214 reg1/FE_PHC4_n_6
*215 reg1/FE_PHC3_n_9
*216 reg1/FE_PHC2_n_11
*217 reg1/FE_PHC1_sum_q_1
*218 reg1/FE_PHC0_q_0_58
*219 reg1/q_reg\[3\]
*220 reg1/q_reg\[2\]
*221 reg1/q_reg\[0\]
*222 reg1/q_reg\[4\]
*223 reg1/q_reg\[6\]
*224 reg1/q_reg\[5\]
*225 reg1/q_reg\[1\]
*226 reg1/q_reg\[7\]
*227 reg1/g27__2398
*228 reg1/g28__5107
*229 reg1/g29__6260
*230 reg1/g30__4319
*231 reg1/g31__8428
*232 reg1/g32__5526
*233 reg1/g33__6783
*234 reg1/g34__3680
*235 reg1/g35__1617
*236 reg1/g36__2802
*237 reg1/g37__1705
*238 reg1/g38__5122
*239 reg1/g39__8246
*240 reg1/g40__7098
*241 reg1/g41__6131
*242 reg1/g42__1881
*243 reg1/g43
*244 reg1/g44
*245 reg1/g45
*246 reg1/g46
*247 csa_tree_add1_add_30_16_groupi_g417__5115
*248 csa_tree_add1_add_30_16_groupi_g418__7482
*249 csa_tree_add1_add_30_16_groupi_g419__4733
*250 csa_tree_add1_add_30_16_groupi_g420__6161
*251 csa_tree_add1_add_30_16_groupi_g421__9315
*252 csa_tree_add1_add_30_16_groupi_g422__9945
*253 csa_tree_add1_add_30_16_groupi_g423__2883
*254 csa_tree_add1_add_30_16_groupi_g424__2346
*255 csa_tree_add1_add_30_16_groupi_g425__1666
*256 csa_tree_add1_add_30_16_groupi_g426__7410
*257 csa_tree_add1_add_30_16_groupi_g427__6417
*258 csa_tree_add1_add_30_16_groupi_g428__5477
*259 csa_tree_add1_add_30_16_groupi_g429__2398
*260 csa_tree_add1_add_30_16_groupi_g430__5107
*261 csa_tree_add1_add_30_16_groupi_g431__6260
*262 csa_tree_add1_add_30_16_groupi_g432__4319
*263 csa_tree_add1_add_30_16_groupi_g433__8428
*264 csa_tree_add1_add_30_16_groupi_g434__5526
*265 csa_tree_add1_add_30_16_groupi_g435__6783
*266 csa_tree_add1_add_30_16_groupi_g436__3680
*267 csa_tree_add1_add_30_16_groupi_g437__1617
*268 csa_tree_add1_add_30_16_groupi_g438__2802
*269 csa_tree_add1_add_30_16_groupi_g439__1705
*270 csa_tree_add1_add_30_16_groupi_g440__5122
*271 csa_tree_add1_add_30_16_groupi_g441__8246
*272 csa_tree_add1_add_30_16_groupi_g442__7098
*273 csa_tree_add1_add_30_16_groupi_g443__6131
*274 csa_tree_add1_add_30_16_groupi_g445__5115
*275 csa_tree_add1_add_30_16_groupi_g446__7482
*276 csa_tree_add1_add_30_16_groupi_g447__4733
*277 csa_tree_add1_add_30_16_groupi_g448__6161
*278 csa_tree_add1_add_30_16_groupi_g449__9315
*279 csa_tree_add1_add_30_16_groupi_g450__9945
*280 csa_tree_add1_add_30_16_groupi_g451__2883
*281 csa_tree_add1_add_30_16_groupi_g452__2346
*282 csa_tree_add1_add_30_16_groupi_g454__7410
*283 csa_tree_add1_add_30_16_groupi_g455__6417
*284 csa_tree_add1_add_30_16_groupi_g456__5477
*285 csa_tree_add1_add_30_16_groupi_g457__2398
*286 csa_tree_add1_add_30_16_groupi_g458__5107
*287 csa_tree_add1_add_30_16_groupi_g459__6260
*288 csa_tree_add1_add_30_16_groupi_g461__8428
*289 csa_tree_add1_add_30_16_groupi_g462__5526
*290 csa_tree_add1_add_30_16_groupi_g463__6783
*291 csa_tree_add1_add_30_16_groupi_g464__3680
*292 csa_tree_add1_add_30_16_groupi_g465__1617
*293 csa_tree_add1_add_30_16_groupi_g466__2802
*294 csa_tree_add1_add_30_16_groupi_g467__1705
*295 csa_tree_add1_add_30_16_groupi_g468__5122
*296 csa_tree_add1_add_30_16_groupi_g469__8246
*297 csa_tree_add1_add_30_16_groupi_g470__7098
*298 csa_tree_add1_add_30_16_groupi_g471__6131
*299 csa_tree_add1_add_30_16_groupi_g472__1881
*300 csa_tree_add1_add_30_16_groupi_g474__5115
*301 csa_tree_add1_add_30_16_groupi_g475__7482
*302 csa_tree_add1_add_30_16_groupi_g476__4733
*303 csa_tree_add1_add_30_16_groupi_g477__6161
*304 csa_tree_add1_add_30_16_groupi_g478__9315
*305 csa_tree_add1_add_30_16_groupi_g479__9945
*306 csa_tree_add1_add_30_16_groupi_g480__2883
*307 csa_tree_add1_add_30_16_groupi_g481__2346
*308 csa_tree_add1_add_30_16_groupi_g483
*309 csa_tree_add1_add_30_16_groupi_g484__1666
*310 csa_tree_add1_add_30_16_groupi_g485__7410
*311 csa_tree_add1_add_30_16_groupi_g486__6417
*312 csa_tree_add1_add_30_16_groupi_g487__5477
*313 csa_tree_add1_add_30_16_groupi_g488__2398
*314 csa_tree_add1_add_30_16_groupi_g490__5107
*315 csa_tree_add1_add_30_16_groupi_g491__6260
*316 csa_tree_add1_add_30_16_groupi_g492__4319
*317 csa_tree_add1_add_30_16_groupi_g493__8428
*318 csa_tree_add1_add_30_16_groupi_g494__5526
*319 csa_tree_add1_add_30_16_groupi_g495__6783
*320 csa_tree_add1_add_30_16_groupi_g496__3680
*321 csa_tree_add1_add_30_16_groupi_g497__1617
*322 csa_tree_add1_add_30_16_groupi_g498__2802
*323 csa_tree_add1_add_30_16_groupi_g499__1705
*324 csa_tree_add1_add_30_16_groupi_g500__5122
*325 csa_tree_add1_add_30_16_groupi_g501__8246
*326 csa_tree_add1_add_30_16_groupi_g502__7098
*327 csa_tree_add1_add_30_16_groupi_g503__6131
*328 csa_tree_add1_add_30_16_groupi_g504__1881
*329 csa_tree_add1_add_30_16_groupi_g505__5115
*330 csa_tree_add1_add_30_16_groupi_g506__7482
*331 csa_tree_add1_add_30_16_groupi_g507__4733
*332 csa_tree_add1_add_30_16_groupi_g510
*333 csa_tree_add1_add_30_16_groupi_g513
*334 g2
*335 g3
*336 g515
*337 g516


*PORTS

*1 I *C 78.48 0
*2 I *C 73.2 0
*3 I *C 68.88 0
*4 I *C 71.28 0
*5 I *C 76.56 0
*6 I *C 74.16 0
*7 I *C 68.505 0
*8 I *C 72.24 0
*9 I *C 64.56 133.94
*10 I *C 68.4 133.94
*11 I *C 70.8 133.94
*12 O *C 86.16 133.94
*13 O *C 142.08 72.35
*14 O *C 142.08 63.2
*15 O *C 0 64.42
*16 O *C 0 63.2
*17 O *C 56.4 133.94
*18 O *C 61.2 133.94
*19 O *C 76.56 133.94


*D_NET *1 0.0111508

*CONN
*P *1 I *C 78.48 0 *L 0
*I *330:B I *C 87.79 57.35 *L 0.00569 *D sky130_osu_sc_18T_ms__and2_1
*I *328:B I *C 79.91 44.03 *L 0.0042 *D sky130_osu_sc_18T_ms__nand2_l
*I *327:B I *C 79.8 49.95 *L 0.00545 *D sky130_osu_sc_18T_ms__nand2_1
*I *320:B I *C 87.19 44.03 *L 0.00545 *D sky130_osu_sc_18T_ms__nand2_1

*CAP
1 *330:B 0.000735641
2 *320:B 7.89165e-05
3 *328:B 3.82662e-05
4 *327:B 0.000602722
5 *1 5.81741e-05
6 *1:5 0.0014475
7 *1:6 0.0007025
8 *1:7 0.0035972
9 *1:8 0.00296092
10 *320:B *272:A1 9.53674e-07
11 *1:5 *208:Y 0.000208765
12 *330:B *272:A1 0.000208765
13 *330:B *330:A 0.000510454

*RES
1 *1:8 *1 1.67465
2 *1:7 *1:8 51.8669
3 *1:6 *1:7 0.913501
4 *327:B *1:6 126.6
5 *328:B *1:6 9.60124
6 *320:B *1:5 93.9392
7 *330:B *1:5 28.5528
8 *1:5 *1:7 14.3206
*END

*D_NET *2 0.00970238

*CONN
*P *2 I *C 73.2 0 *L 0
*I *329:B I *C 71.28 49.95 *L 0.00569 *D sky130_osu_sc_18T_ms__and2_1
*I *324:B I *C 73.31 44.03 *L 0.00545 *D sky130_osu_sc_18T_ms__nand2_1
*I *323:B I *C 86.2 49.95 *L 0.00545 *D sky130_osu_sc_18T_ms__nand2_1
*I *322:B I *C 86.24 44.03 *L 0.00569 *D sky130_osu_sc_18T_ms__and2_1

*CAP
1 *323:B 0.000524163
2 *2 0.00236475
3 *324:B 0.000684202
4 *329:B 0.000117302
5 *2:5 0.00117993
6 *2:6 0.0027737
7 *2:7 0.000497818
8 *2:7 *8:5 4.57764e-05
9 *324:B *8:5 3.8147e-06
10 *2:6 *8:7 0.000242352
11 *2:6 *8:8 0.000153184
12 *2:6 *324:A 3.93391e-06
13 *2:6 *8:5 5.36442e-07
14 *2 *8:9 0.000242352
15 *324:B *6:8 0.000135779
16 *2:6 *6:7 4.00543e-05
17 *2:6 *6:8 1.93715e-05
18 *2:6 *6:6 0.000262737
19 *2 *6:5 0.000262737
20 *2:5 *6:9 1.20997e-05
21 *2:5 *322:A 0.000135779

*RES
1 *329:B *2:7 161.75
2 *324:B *2:6 9.40633
3 *2:6 *2 53.432
4 *2:7 *2:6 40.9735
5 *322:B *2:5 0.5
6 *2:5 *324:B 1255.8
7 *323:B *2:5 98.4899
*END

*D_NET *3 0.0102868

*CONN
*P *3 I *C 68.88 0 *L 0
*I *331:B I *C 70.34 57.35 *L 0.00545 *D sky130_osu_sc_18T_ms__nand2_1
*I *326:B I *C 73.2 57.35 *L 0.00545 *D sky130_osu_sc_18T_ms__nand2_1
*I *321:A I *C 69.12 43.66 *L 0.00558 *D sky130_osu_sc_18T_ms__and2_1
*I *317:B I *C 77.51 44.03 *L 0.00545 *D sky130_osu_sc_18T_ms__nand2_1

*CAP
1 *317:B 0.000605464
2 *326:B 0.000149786
3 *321:A 2.5928e-05
4 *3 0.00284827
5 *3:5 0.00125569
6 *3:6 0.00114626
7 *3:7 0.00346816
8 *3:7 *4:7 0.000328422
9 *317:B *328:A 0.000458837

*RES
1 *3:7 *3 52.2323
2 *3:6 *3:7 0.298381
3 *321:A *3:6 9.40633
4 *331:B *3:5 0.5
5 *3:5 *3:6 28.163
6 *326:B *3:5 221.086
7 *317:B *3:7 23.5007
*END

*D_NET *4 0.0114311

*CONN
*P *4 I *C 71.28 0 *L 0
*I *325:B I *C 67.26 44.03 *L 0.00545 *D sky130_osu_sc_18T_ms__nand2_1
*I *319:B I *C 77.4 49.95 *L 0.00545 *D sky130_osu_sc_18T_ms__nand2_1
*I *318:A I *C 67.95 56.98 *L 0.00548 *D sky130_osu_sc_18T_ms__nand2_1
*I *316:B I *C 75.31 57.35 *L 0.00545 *D sky130_osu_sc_18T_ms__nand2_1

*CAP
1 *319:B 0.000823975
2 *316:B 0.000685275
3 *4 0.000179708
4 *318:A 1.10269e-05
5 *325:B 2.8789e-05
6 *4:5 0.00116879
7 *4:6 0.0017907
8 *4:7 0.00315303
9 *4:8 0.00040555
10 *4:9 0.00285584
11 *4:7 *3:7 0.000328422

*RES
1 *4:9 *4:8 343.939
2 *4:7 *4:9 48.7124
3 *325:B *4:7 9.40633
4 *4:6 *4:7 8.1116
5 *4:5 *4:6 8.34918
6 *318:A *4:5 9.30786
7 *4:8 *4 4.31156
8 *316:B *4:5 125.631
9 *319:B *4:6 23.2043
*END

*D_NET *5 0.0102845

*CONN
*P *5 I *C 76.56 0 *L 0
*I *330:A I *C 87.31 56.98 *L 0.00558 *D sky130_osu_sc_18T_ms__and2_1
*I *323:A I *C 87.16 50.32 *L 0.00548 *D sky130_osu_sc_18T_ms__nand2_1
*I *319:A I *C 78.36 50.32 *L 0.00548 *D sky130_osu_sc_18T_ms__nand2_1
*I *317:A I *C 78.47 43.66 *L 0.00548 *D sky130_osu_sc_18T_ms__nand2_1

*CAP
1 *330:A 0.000414014
2 *323:A 2.93851e-05
3 *5 0.00292635
4 *317:A 3.80874e-05
5 *319:A 0.000124693
6 *5:5 0.00120372
7 *5:6 0.00338924
8 *5:7 0.00130981
9 *5:6 *6:6 0.000169367
10 *5 *6:5 0.000169367
11 *330:A *330:B 0.000510454

*RES
1 *5:7 *5:6 8.64148
2 *319:A *5:7 10.9349
3 *317:A *5:6 9.40633
4 *5:6 *5 55.4904
5 *323:A *5:5 9.40633
6 *5:5 *5:7 14.5521
7 *330:A *5:5 163.63
*END

*D_NET *6 0.00842935

*CONN
*P *6 I *C 74.16 0 *L 0
*I *325:A I *C 66.3 43.66 *L 0.00548 *D sky130_osu_sc_18T_ms__nand2_1
*I *322:A I *C 86.72 43.66 *L 0.00558 *D sky130_osu_sc_18T_ms__and2_1
*I *321:B I *C 68.64 44.03 *L 0.00569 *D sky130_osu_sc_18T_ms__and2_1
*I *320:A I *C 88.15 43.66 *L 0.00548 *D sky130_osu_sc_18T_ms__nand2_1

*CAP
1 *320:A 7.68304e-05
2 *322:A 0.000615537
3 *6 3.8743e-05
4 *321:B 2.06232e-05
5 *325:A 9.42946e-05
6 *6:5 0.00235116
7 *6:6 0.00242656
8 *6:7 6.31213e-05
9 *6:8 0.00102937
10 *6:9 0.000505805
11 *6:9 *2:5 1.20997e-05
12 *6:8 *324:B 0.000135779
13 *6:8 *2:6 1.93715e-05
14 *6:7 *2:6 4.00543e-05
15 *6:6 *2:6 0.000262737
16 *6:5 *2 0.000262737
17 *322:A *2:5 0.000135779
18 *6:6 *5:6 0.000169367
19 *6:5 *5 0.000169367

*RES
1 *325:A *6:9 150.371
2 *6:9 *6:8 586.852
3 *321:B *6:9 28.0421
4 *6:7 *6 1.43719
5 *6:8 *6:6 10.868
6 *6:5 *6:7 0.669837
7 *6:6 *6:5 49.2909
8 *322:A *6:8 1125.34
9 *320:A *322:A 117.045
*END

*D_NET *7 0.0102671

*CONN
*P *7 I *C 68.505 0 *L 0
*I *331:A I *C 69.38 56.98 *L 0.00548 *D sky130_osu_sc_18T_ms__nand2_1
*I *329:A I *C 71.76 50.32 *L 0.00558 *D sky130_osu_sc_18T_ms__and2_1
*I *328:A I *C 78.95 43.66 *L 0.00422 *D sky130_osu_sc_18T_ms__nand2_l
*I *318:B I *C 68.91 57.35 *L 0.00545 *D sky130_osu_sc_18T_ms__nand2_1

*CAP
1 *328:A 0.0006724
2 *329:A 1.07288e-05
3 *7 0.00263608
4 *318:B 9.95994e-05
5 *7:5 0.00137466
6 *7:6 0.0041095
7 *7:7 0.000684321
8 *7:8 0.000221014
9 *328:A *317:B 0.000458837

*RES
1 *318:B *7:8 19.6654
2 *7:8 *7:7 187.76
3 *331:A *7:8 0.5
4 *7:6 *7 11.4232
5 *329:A *7:5 17.0691
6 *7:5 *7:6 58.4316
7 *7:7 *7:5 198.903
8 *328:A *7:6 19.5962
*END

*D_NET *8 0.0101786

*CONN
*P *8 I *C 72.24 0 *L 0
*I *327:A I *C 78.84 50.32 *L 0.00548 *D sky130_osu_sc_18T_ms__nand2_1
*I *326:A I *C 72.24 56.98 *L 0.00548 *D sky130_osu_sc_18T_ms__nand2_1
*I *324:A I *C 72.35 43.66 *L 0.00548 *D sky130_osu_sc_18T_ms__nand2_1
*I *316:A I *C 76.27 56.98 *L 0.00548 *D sky130_osu_sc_18T_ms__nand2_1

*CAP
1 *327:A 2.95639e-05
2 *324:A 5.45979e-05
3 *326:A 0.00023222
4 *8 0.000169635
5 *8:5 0.00179303
6 *8:6 0.000989199
7 *8:7 0.00352865
8 *8:8 0.00019592
9 *8:9 0.00249386
10 *8:9 *2 0.000242352
11 *8:8 *2:6 0.000153184
12 *8:7 *2:6 0.000242352
13 *324:A *2:6 3.93391e-06
14 *8:5 *324:B 3.8147e-06
15 *8:5 *2:6 5.36442e-07
16 *8:5 *2:7 4.57764e-05

*RES
1 *8:9 *8:8 0.669837
2 *8:7 *8:9 47.5736
3 *8:8 *8 5.49304
4 *326:A *8:6 299.116
5 *324:A *8:7 54.924
6 *8:6 *8:5 29.0729
7 *316:A *8:6 0.5
8 *8:5 *8:7 19.9375
9 *327:A *8:5 9.40633
*END

*D_NET *9 0.0253191

*CONN
*P *9 I *C 64.56 133.94 *L 0
*I *226:CK I *C 93.81 89.54 *L 0.0155 *D sky130_osu_sc_18T_ms__dff_1
*I *225:CK I *C 68.78 89.54 *L 0.0155 *D sky130_osu_sc_18T_ms__dff_1
*I *224:CK I *C 76.32 71.04 *L 0.0155 *D sky130_osu_sc_18T_ms__dff_1
*I *223:CK I *C 84.79 76.22 *L 0.0155 *D sky130_osu_sc_18T_ms__dff_1
*I *222:CK I *C 68.73 62.9 *L 0.0155 *D sky130_osu_sc_18T_ms__dff_1
*I *221:CK I *C 73.57 89.54 *L 0.0155 *D sky130_osu_sc_18T_ms__dff_1
*I *220:CK I *C 57.23 89.54 *L 0.0155 *D sky130_osu_sc_18T_ms__dff_1
*I *219:CK I *C 57.23 76.22 *L 0.0155 *D sky130_osu_sc_18T_ms__dff_1

*CAP
1 *226:CK 0.00118142
2 *223:CK 0.0018397
3 *224:CK 0.000172436
4 *221:CK 6.96778e-05
5 *222:CK 0.00180382
6 *225:CK 7.55191e-05
7 *9 5.05447e-05
8 *220:CK 7.69496e-05
9 *219:CK 0.000968039
10 *9:9 0.00144714
11 *9:10 0.00312227
12 *9:11 0.00127494
13 *9:12 0.00240552
14 *9:13 0.00118607
15 *9:14 0.00393629
16 *9:15 0.000736237
17 *9:16 0.00497252

*RES
1 *219:CK *9:16 19.647
2 *220:CK *9:15 14.0498
3 *9:16 *9:14 22.6848
4 *9:15 *9:16 3.58427
5 *9:14 *9 1.2362
6 *9:13 *9:15 3.8712
7 *225:CK *9:13 14.0845
8 *222:CK *9:12 25.89
9 *221:CK *9:11 14.0845
10 *9:12 *9:10 0.897884
11 *9:10 *9:9 5.42879
12 *9:9 *9:13 4.49371
13 *9:11 *9:9 0.150919
14 *224:CK *9:12 17.6971
15 *223:CK *9:10 25.0633
16 *226:CK *9:11 23.4349
*END

*D_NET *10 0.0172585

*CONN
*P *10 I *C 68.4 133.94 *L 0
*I *234:A I *C 56.877 83.62 *L 0.00548 *D sky130_osu_sc_18T_ms__nor2_1
*I *233:A I *C 87.787 70.3 *L 0.00548 *D sky130_osu_sc_18T_ms__nor2_1
*I *232:A I *C 88.333 90.28 *L 0.00548 *D sky130_osu_sc_18T_ms__nor2_1
*I *231:A I *C 70.737 83.62 *L 0.00548 *D sky130_osu_sc_18T_ms__nor2_1
*I *230:A I *C 70.953 90.28 *L 0.00548 *D sky130_osu_sc_18T_ms__nor2_1
*I *229:A I *C 54.457 70.3 *L 0.00548 *D sky130_osu_sc_18T_ms__nor2_1
*I *228:A I *C 60.943 70.3 *L 0.00548 *D sky130_osu_sc_18T_ms__nor2_1
*I *227:A I *C 79.427 76.96 *L 0.00548 *D sky130_osu_sc_18T_ms__nor2_1

*CAP
1 *232:A 0.000796914
2 *233:A 9.91225e-05
3 *227:A 3.91603e-05
4 *231:A 9.41753e-06
5 *10 0.00283939
6 *228:A 0.000110567
7 *234:A 0.000105679
8 *229:A 0.000288606
9 *10:9 0.00103664
10 *10:10 0.00198573
11 *10:11 0.00088948
12 *10:12 0.00114274
13 *10:13 0.000113368
14 *10:14 0.00291061
15 *10:15 0.000632048
16 *10:16 0.000129163
17 *10:17 0.00123155
18 *10:18 0.00163203
19 *10:19 0.0012663

*RES
1 *229:A *10:19 360.483
2 *234:A *10:18 156.467
3 *10:18 *10:17 840.451
4 *10:19 *10:18 34.9507
5 *10:16 *10:19 25.1973
6 *228:A *10:16 167.033
7 *10:17 *10:15 18.5045
8 *10:14 *10 51.8242
9 *10:13 *10:15 9.40633
10 *10:15 *10:14 1.91224
11 *231:A *10:12 16.6627
12 *10:12 *10:17 187.76
13 *10:11 *10:13 143.055
14 *230:A *10:11 0.5
15 *10:10 *10:12 709.543
16 *227:A *10:10 60.1484
17 *10:9 *10:10 643.099
18 *233:A *10:9 161.75
19 *232:A *10:11 1565.89
*END

*D_NET *11 0.0203467

*CONN
*P *11 I *C 70.8 133.94 *L 0
*I *246:A I *C 85.95 90.28 *L 0.00547 *D sky130_osu_sc_18T_ms__inv_1
*I *242:B1 I *C 87.3 84.725 *L 0.00545 *D sky130_osu_sc_18T_ms__aoi22_l
*I *241:B1 I *C 80.35 75.855 *L 0.00545 *D sky130_osu_sc_18T_ms__aoi22_l
*I *240:B1 I *C 88.71 71.405 *L 0.00545 *D sky130_osu_sc_18T_ms__aoi22_l
*I *239:B1 I *C 62.77 89.175 *L 0.00545 *D sky130_osu_sc_18T_ms__aoi22_l
*I *238:B1 I *C 55.38 71.405 *L 0.00545 *D sky130_osu_sc_18T_ms__aoi22_l
*I *237:B1 I *C 54.06 84.725 *L 0.00545 *D sky130_osu_sc_18T_ms__aoi22_l
*I *236:B1 I *C 74.3 84.725 *L 0.00545 *D sky130_osu_sc_18T_ms__aoi22_l
*I *235:B1 I *C 54.06 62.535 *L 0.00545 *D sky130_osu_sc_18T_ms__aoi22_l

*CAP
1 *240:B1 0.000878751
2 *242:B1 0.00012207
3 *246:A 0.000348449
4 *241:B1 0.000119209
5 *236:B1 0.000108898
6 *11 0.0028978
7 *238:B1 0.000177741
8 *237:B1 4.50015e-05
9 *235:B1 0.000632823
10 *11:10 0.000750661
11 *11:11 0.000199199
12 *11:12 0.0017432
13 *11:13 0.00184548
14 *11:14 0.00125414
15 *11:15 0.00294811
16 *11:16 0.0011822
17 *11:17 0.00149298
18 *11:18 0.00135326
19 *11:19 0.00152344
20 *11:19 *159:15 5.14686e-05
21 *11:19 *239:A0 7.27177e-05
22 *11:17 *159:16 5.14686e-05
23 *11:17 *159:15 5.24521e-06
24 *11:17 *159:13 6.13928e-06
25 *11:17 *237:A0 4.29153e-06
26 *11:17 *239:A0 1.13845e-05
27 *237:B1 *239:A0 6.73532e-06
28 *11:11 *159:11 2.75373e-05
29 *11:10 *159:11 1.17421e-05
30 *246:A *159:11 6.2108e-05
31 *246:A *159:10 1.54972e-06
32 *246:A *159:9 1.2517e-06
33 *242:B1 *159:12 1.3411e-05
34 *240:B1 *240:A0 5.37038e-05
35 *11:17 *29:3 0.000111073
36 *11:17 *29:2 4.66108e-05
37 *235:B1 *235:B0 5.82337e-05
38 *235:B1 *29:2 0.000111073
39 *238:B1 *29:2 1.55568e-05

*RES
1 *11:19 *11:18 883.96
2 *11:17 *11:19 14.8714
3 *235:B1 *11:17 64.6806
4 *237:B1 *11:19 35.4165
5 *238:B1 *11:17 256.502
6 *11:18 *11:16 720.619
7 *239:B1 *11:18 0.5
8 *11:16 *11:15 1.01089
9 *11:15 *11 53.2614
10 *11:14 *11:16 11.5073
11 *236:B1 *11:14 40.2334
12 *241:B1 *11:13 113.788
13 *11:13 *11:12 14.0842
14 *11:12 *11:14 4.48191
15 *11:11 *11:10 10.2528
16 *11:10 *11:12 6.60193
17 *246:A *11:10 79.5044
18 *242:B1 *11:11 182.071
19 *240:B1 *11:13 26.9041
*END

*D_NET *12 0.00803375

*CONN
*P *12 O *C 86.16 133.94 *L 0.006
*I *226:Q O *C 99.09 90.28 *L 0 *D sky130_osu_sc_18T_ms__dff_1
*I *190:A I *C 99.78 83.62 *L 0.00446 *D sky130_osu_sc_18T_ms__buf_l

*CAP
1 *190:A 0.000504851
2 *226:Q 1.22786e-05
3 *12 0.00281578
4 *12:3 0.00102305
5 *12:4 0.00332171
6 *12:4 *181:A 0.000178039
7 *12:3 *141:3 0.000178039

*RES
1 *12:4 *12:3 1157.1
2 *12 *12:4 51.1787
3 *12:3 *226:Q 28.4486
4 *190:A *12:3 191.871
*END

*D_NET *13 0.0129577

*CONN
*P *13 O *C 142.08 72.35 *L 0.006
*I *301:A I *C 91.48 50.32 *L 0.0114 *D sky130_osu_sc_18T_ms__xor2_l
*I *223:Q O *C 90.07 76.96 *L 0 *D sky130_osu_sc_18T_ms__dff_1
*I *209:A I *C 90.32 83.62 *L 0.00446 *D sky130_osu_sc_18T_ms__buf_l

*CAP
1 *13 0.00411665
2 *301:A 0.000523627
3 *223:Q 3.21269e-05
4 *209:A 0.000358999
5 *13:4 0.00130439
6 *13:5 0.00418341
7 *13:6 0.00120157
8 *13:7 0.000745177
9 *13:6 *23:4 0.000245869
10 *13:4 *335:A0 0.000245869

*RES
1 *209:A *13:7 18.2
2 *13:6 *13:7 5.47469
3 *13:5 *13:6 4.71342
4 *13:7 *223:Q 9.74739
5 *13:4 *13:6 16.546
6 *301:A *13:4 20.1123
7 *13 *13:5 24.2531
*END

*D_NET *14 0.0150129

*CONN
*P *14 O *C 142.08 63.2 *L 0.006
*I *280:B I *C 93.95 63.27 *L 0.00449 *D sky130_osu_sc_18T_ms__nor2_l
*I *278:A I *C 90.76 61.79 *L 0.0114 *D sky130_osu_sc_18T_ms__xnor2_l
*I *224:Q O *C 81.6 70.3 *L 0 *D sky130_osu_sc_18T_ms__dff_1
*I *208:A I *C 81.3 43.66 *L 0.00571 *D sky130_osu_sc_18T_ms__buf_8

*CAP
1 *14 7.2062e-05
2 *280:B 0.000151992
3 *278:A 2.52128e-05
4 *224:Q 0.000934482
5 *208:A 0.00121611
6 *14:5 0.0038687
7 *14:6 0.0041728
8 *14:7 0.00115806
9 *14:8 0.00305927
10 *14:7 *145:2 0.000354171

*RES
1 *208:A *14:8 69.5131
2 *14:8 *224:Q 19.5236
3 *278:A *14:7 9.40633
4 *14:7 *14:8 16.1817
5 *280:B *14:6 84.0112
6 *14:6 *14:7 6.24371
7 *14:5 *14:6 22.103
8 *14 *14:5 0.768542
*END

*D_NET *15 0.0130785

*CONN
*P *15 O *C 0 64.42 *L 0.006
*I *332:A I *C 61.24 50.32 *L 0.00547 *D sky130_osu_sc_18T_ms__inv_1
*I *283:A1 I *C 62.91 57.72 *L 0.742 *D sky130_osu_sc_18T_ms__mux2_1
*I *244:Y O *C 62.15 61.79 *L 0 *D sky130_osu_sc_18T_ms__inv_1
*I *201:A I *C 58.42 70.3 *L 0.00569 *D sky130_osu_sc_18T_ms__buf_4

*CAP
1 *283:A1 0.000112951
2 *332:A 0.000453114
3 *244:Y 0.000403941
4 *201:A 0.000375926
5 *15 0.00366479
6 *15:5 0.000873148
7 *15:6 0.000142694
8 *15:7 0.000362694
9 *15:8 0.000436425
10 *15:9 0.00116616
11 *15:10 0.00442141
12 *15 *16:10 0.000332594
13 *15:10 *16:9 0.000332594

*RES
1 *15 *15:10 22.8174
2 *15:10 *15:9 5.8918
3 *201:A *15:8 15.4048
4 *15:8 *15:9 4.71342
5 *15:9 *15:7 17.272
6 *15:6 *15:5 9.40633
7 *15:5 *244:Y 79.9003
8 *332:A *15:5 18.0296
9 *15:7 *244:Y 26.01
10 *283:A1 *15:6 143.055
*END

*D_NET *16 0.0115129

*CONN
*P *16 O *C 0 63.2 *L 0.006
*I *294:B I *C 53.43 57.35 *L 0.00431 *D sky130_osu_sc_18T_ms__or2_l
*I *288:A I *C 49.11 56.98 *L 0.0114 *D sky130_osu_sc_18T_ms__xor2_l
*I *275:B0 I *C 56.26 57.72 *L 0.00568 *D sky130_osu_sc_18T_ms__aoi22_l
*I *243:Y O *C 56.66 61.79 *L 0 *D sky130_osu_sc_18T_ms__inv_1
*I *202:A I *C 51.6 63.64 *L 0.00569 *D sky130_osu_sc_18T_ms__buf_4

*CAP
1 *275:B0 0.000413775
2 *243:Y 0.000461042
3 *294:B 0.000136614
4 *202:A 0.000136018
5 *288:A 7.53403e-05
6 *16 7.17044e-05
7 *16:6 0.000377476
8 *16:7 0.000549376
9 *16:8 0.000558674
10 *16:9 0.00419641
11 *16:10 0.00387126
12 *16:10 *15 0.000332594
13 *16:9 *15:10 0.000332594

*RES
1 *16 *16:10 0.994921
2 *16:10 *16:9 23.2346
3 *288:A *16:8 74.7726
4 *16:7 *16:9 4.71342
5 *16:9 *16:6 16.2082
6 *16:8 *16:7 7.08246
7 *202:A *16:7 75.2902
8 *294:B *16:8 114.372
9 *16:6 *243:Y 84.5327
10 *275:B0 *243:Y 174.115
*END

*D_NET *17 0.00812304

*CONN
*P *17 O *C 56.4 133.94 *L 0.006
*I *269:B I *C 46.21 83.99 *L 0.00449 *D sky130_osu_sc_18T_ms__nor2_l
*I *220:Q O *C 51.95 90.28 *L 0 *D sky130_osu_sc_18T_ms__dff_1
*I *197:A I *C 44.01 90.28 *L 0.00446 *D sky130_osu_sc_18T_ms__buf_l

*CAP
1 *17 0.00277364
2 *220:Q 1.83582e-05
3 *269:B 0.000528455
4 *197:A 9.39369e-05
5 *17:4 0.00310713
6 *17:5 3.31402e-05
7 *17:6 0.000647128
8 *17:7 0.000921249

*RES
1 *197:A *17:7 171.504
2 *17:7 *17:6 538.896
3 *269:B *17:7 27.9413
4 *17:5 *220:Q 44.7048
5 *17:6 *17:5 30.0741
6 *17:4 *17:6 278.376
7 *17 *17:4 50.1069
*END

*D_NET *18 0.00631869

*CONN
*P *18 O *C 61.2 133.94 *L 0.006
*I *225:Q O *C 63.5 90.28 *L 0 *D sky130_osu_sc_18T_ms__dff_1
*I *217:A I *C 60.18 90.28 *L 0.00446 *D sky130_osu_sc_18T_ms__buf_l

*CAP
1 *225:Q 6.28233e-05
2 *18 0.00164652
3 *217:A 0.000117421
4 *18:3 9.66787e-05
5 *18:4 0.00294524
6 *18:5 0.00145

*RES
1 *217:A *18:5 148.542
2 *18:4 *18:5 31.5976
3 *18 *18:4 31.0946
4 *18:5 *18:3 73.1534
5 *18:3 *225:Q 122.735
*END

*D_NET *19 0.00866377

*CONN
*P *19 O *C 76.56 133.94 *L 0.006
*I *333:A I *C 79.35 83.62 *L 0.00547 *D sky130_osu_sc_18T_ms__inv_1
*I *245:Y O *C 79.87 88.43 *L 0 *D sky130_osu_sc_18T_ms__inv_1
*I *236:A1 I *C 75.46 83.99 *L 0.00552 *D sky130_osu_sc_18T_ms__aoi22_l

*CAP
1 *333:A 0.000131667
2 *245:Y 8.25524e-05
3 *19 0.000103593
4 *236:A1 0.000405192
5 *19:4 0.000110269
6 *19:5 0.00360888
7 *19:6 0.0030061
8 *19:7 0.00121552

*RES
1 *236:A1 *19:7 332.347
2 *19 *19:6 2.84398
3 *19:7 *19:5 20.566
4 *19:4 *245:Y 104.04
5 *19:5 *19:4 9.40633
6 *19:6 *19:5 53.0666
7 *333:A *19:7 250.347
*END

*D_NET *20 0.00208533

*CONN
*I *334:B I *C 93.67 85.1 *L 0.0105 *D sky130_osu_sc_18T_ms__xnor2_l
*I *196:Y O *C 100.59 88.43 *L 0 *D sky130_osu_sc_18T_ms__buf_l
*I *179:A I *C 88.45 83.62 *L 0.00446 *D sky130_osu_sc_18T_ms__buf_l

*CAP
1 *334:B 7.4625e-05
2 *196:Y 0.0003407
3 *179:A 0.000365019
4 *20:3 0.00060302
5 *20:4 0.000701964

*RES
1 *179:A *20:4 429.419
2 *20:4 *20:3 14.2295
3 *20:3 *196:Y 572.222
4 *334:B *20:4 79.3085
*END

*D_NET *21 0.00205672

*CONN
*I *268:A I *C 47.19 88.43 *L 0.0114 *D sky130_osu_sc_18T_ms__xnor2_l
*I *260:A1 I *C 47.64 83.99 *L 0.00551 *D sky130_osu_sc_18T_ms__aoi21_l
*I *237:A1 I *C 55.22 83.99 *L 0.00552 *D sky130_osu_sc_18T_ms__aoi22_l
*I *197:Y O *C 44.49 88.43 *L 0 *D sky130_osu_sc_18T_ms__buf_l

*CAP
1 *237:A1 0.000212073
2 *260:A1 0.000216782
3 *197:Y 7.73668e-05
4 *268:A 0.00028944
5 *21:4 0.000522137
6 *21:5 0.000738919

*RES
1 *268:A *197:Y 117.045
2 *260:A1 *21:5 101.797
3 *21:5 *268:A 77.4765
4 *21:4 *21:5 15.0577
5 *237:A1 *21:4 338.131
*END

*D_NET *22 0.00511676

*CONN
*I *272:A1 I *C 96.81 63.27 *L 0.00551 *D sky130_osu_sc_18T_ms__aoi21_l
*I *208:Y O *C 81.78 45.51 *L 0 *D sky130_osu_sc_18T_ms__buf_8
*I *185:A I *C 76.57 43.66 *L 0.00446 *D sky130_osu_sc_18T_ms__buf_l

*CAP
1 *272:A1 0.00191683
2 *208:Y 0.00194883
3 *185:A 0.000400305
4 *22:3 0.000432313
5 *208:Y *1:5 0.000208765
6 *272:A1 *320:B 9.53674e-07
7 *272:A1 *330:B 0.000208765

*RES
1 *185:A *22:3 527.111
2 *22:3 *208:Y 58.1163
3 *272:A1 *208:Y 1513.78
*END

*D_NET *23 0.00511539

*CONN
*I *335:A0 I *C 91.38 56.98 *L 0.00531 *D sky130_osu_sc_18T_ms__aoi21_l
*I *209:Y O *C 90.8 85.47 *L 0 *D sky130_osu_sc_18T_ms__buf_l
*I *198:A I *C 98.02 76.96 *L 0.00569 *D sky130_osu_sc_18T_ms__buf_4

*CAP
1 *198:A 0.000432253
2 *335:A0 0.00145513
3 *209:Y 5.22137e-05
4 *23:3 0.000424445
5 *23:4 0.00225961
6 *23:4 *13:6 0.000245869
7 *335:A0 *13:4 0.000245869

*RES
1 *23:4 *23:3 18.6385
2 *23:3 *209:Y 84.5327
3 *335:A0 *23:4 140.449