*SPEF "IEEE 1481-1998"
*DESIGN "mult_seq"
*DATE "Mon Aug  1 10:19:22 2022"
*VENDOR "Cadence Design Systems, Inc."
*PROGRAM "Innovus"
*VERSION "19.18-s072_1"
*DESIGN_FLOW "COUPLING C" "PIN_CAP NONE" "NAME_SCOPE LOCAL"
*DIVIDER /
*DELIMITER :
*BUS_DELIMITER []
*T_UNIT 1 NS
*C_UNIT 1 PF
*R_UNIT 1 OHM
*L_UNIT 1 HENRY

// MMMC spef file for corner 'rc_typ'

*NAME_MAP

*1 a[3]
*2 a[2]
*3 a[1]
*4 a[0]
*5 b[3]
*6 b[2]
*7 b[1]
*8 b[0]
*9 clk
*10 reset
*11 en
*12 sum_q[7]
*13 sum_q[6]
*14 sum_q[5]
*15 sum_q[4]
*16 sum_q[3]
*17 sum_q[2]
*18 sum_q[1]
*19 sum_q[0]
*20 FE_PHN22_sum_q_7
*21 FE_PHN21_sum_q_2
*22 FE_PHN10_sum_q_5
*23 FE_PHN9_sum_q_6
*24 FE_PHN1_sum_q_1
*25 sum[7]
*26 sum[6]
*27 sum[5]
*28 sum[4]
*29 sum[3]
*30 sum[2]
*31 sum[1]
*32 sum[0]
*33 csa_tree_add1_add_30_16_groupi_n_0
*34 csa_tree_add1_add_30_16_groupi_n_1
*35 csa_tree_add1_add_30_16_groupi_n_4
*36 csa_tree_add1_add_30_16_groupi_n_5
*37 csa_tree_add1_add_30_16_groupi_n_6
*38 csa_tree_add1_add_30_16_groupi_n_7
*39 csa_tree_add1_add_30_16_groupi_n_8
*40 csa_tree_add1_add_30_16_groupi_n_9
*41 csa_tree_add1_add_30_16_groupi_n_10
*42 csa_tree_add1_add_30_16_groupi_n_11
*43 csa_tree_add1_add_30_16_groupi_n_12
*44 csa_tree_add1_add_30_16_groupi_n_13
*45 csa_tree_add1_add_30_16_groupi_n_14
*46 csa_tree_add1_add_30_16_groupi_n_15
*47 csa_tree_add1_add_30_16_groupi_n_16
*48 csa_tree_add1_add_30_16_groupi_n_17
*49 csa_tree_add1_add_30_16_groupi_n_18
*50 csa_tree_add1_add_30_16_groupi_n_19
*51 csa_tree_add1_add_30_16_groupi_n_20
*52 csa_tree_add1_add_30_16_groupi_n_21
*53 csa_tree_add1_add_30_16_groupi_n_23
*54 csa_tree_add1_add_30_16_groupi_n_24
*55 csa_tree_add1_add_30_16_groupi_n_25
*56 csa_tree_add1_add_30_16_groupi_n_26
*57 csa_tree_add1_add_30_16_groupi_n_27
*58 csa_tree_add1_add_30_16_groupi_n_28
*59 csa_tree_add1_add_30_16_groupi_n_30
*60 csa_tree_add1_add_30_16_groupi_n_31
*61 csa_tree_add1_add_30_16_groupi_n_32
*62 csa_tree_add1_add_30_16_groupi_n_33
*63 csa_tree_add1_add_30_16_groupi_n_34
*64 csa_tree_add1_add_30_16_groupi_n_35
*65 csa_tree_add1_add_30_16_groupi_n_36
*66 csa_tree_add1_add_30_16_groupi_n_39
*67 csa_tree_add1_add_30_16_groupi_n_40
*68 csa_tree_add1_add_30_16_groupi_n_41
*69 csa_tree_add1_add_30_16_groupi_n_42
*70 csa_tree_add1_add_30_16_groupi_n_43
*71 csa_tree_add1_add_30_16_groupi_n_44
*72 csa_tree_add1_add_30_16_groupi_n_45
*73 csa_tree_add1_add_30_16_groupi_n_46
*74 csa_tree_add1_add_30_16_groupi_n_47
*75 csa_tree_add1_add_30_16_groupi_n_48
*76 csa_tree_add1_add_30_16_groupi_n_49
*77 csa_tree_add1_add_30_16_groupi_n_50
*78 csa_tree_add1_add_30_16_groupi_n_52
*79 csa_tree_add1_add_30_16_groupi_n_53
*80 csa_tree_add1_add_30_16_groupi_n_54
*81 csa_tree_add1_add_30_16_groupi_n_55
*82 csa_tree_add1_add_30_16_groupi_n_56
*83 csa_tree_add1_add_30_16_groupi_n_57
*84 csa_tree_add1_add_30_16_groupi_n_59
*85 csa_tree_add1_add_30_16_groupi_n_60
*86 csa_tree_add1_add_30_16_groupi_n_62
*87 csa_tree_add1_add_30_16_groupi_n_63
*88 csa_tree_add1_add_30_16_groupi_n_64
*89 csa_tree_add1_add_30_16_groupi_n_65
*90 csa_tree_add1_add_30_16_groupi_n_66
*91 csa_tree_add1_add_30_16_groupi_n_68
*92 csa_tree_add1_add_30_16_groupi_n_69
*93 csa_tree_add1_add_30_16_groupi_n_70
*94 csa_tree_add1_add_30_16_groupi_n_71
*95 csa_tree_add1_add_30_16_groupi_n_72
*96 csa_tree_add1_add_30_16_groupi_n_73
*97 csa_tree_add1_add_30_16_groupi_n_74
*98 csa_tree_add1_add_30_16_groupi_n_75
*99 csa_tree_add1_add_30_16_groupi_n_76
*100 csa_tree_add1_add_30_16_groupi_n_77
*101 csa_tree_add1_add_30_16_groupi_n_78
*102 csa_tree_add1_add_30_16_groupi_n_79
*103 csa_tree_add1_add_30_16_groupi_n_80
*104 csa_tree_add1_add_30_16_groupi_n_81
*105 csa_tree_add1_add_30_16_groupi_n_82
*106 csa_tree_add1_add_30_16_groupi_n_84
*107 csa_tree_add1_add_30_16_groupi_n_85
*108 csa_tree_add1_add_30_16_groupi_n_87
*109 csa_tree_add1_add_30_16_groupi_n_89
*110 csa_tree_add1_add_30_16_groupi_n_91
*111 csa_tree_add1_add_30_16_groupi_n_93
*112 n_111
*113 n_112
*114 n_113
*115 n_114
*116 reg1/FE_PHN39_sum_q_7
*117 reg1/FE_PHN38_sum_q_1
*118 reg1/FE_PHN37_n_4
*119 reg1/FE_PHN36_q_0_58
*120 reg1/FE_PHN35_sum_q_1
*121 reg1/FE_PHN34_sum_q_6
*122 reg1/FE_PHN33_sum_q_5
*123 reg1/FE_PHN32_q_4_62
*124 reg1/FE_PHN31_n_7
*125 reg1/FE_PHN30_sum_q_6
*126 reg1/FE_PHN29_n_9
*127 reg1/FE_PHN28_sum_q_7
*128 reg1/FE_PHN27_sum_q_5
*129 reg1/FE_PHN26_n_10
*130 reg1/FE_PHN25_sum_q_3
*131 reg1/FE_PHN24_n_9
*132 reg1/FE_PHN23_n_7
*133 reg1/FE_PHN20_sum_q_6
*134 reg1/FE_PHN19_n_10
*135 reg1/FE_PHN18_sum_q_5
*136 reg1/FE_PHN17_sum_q_4
*137 reg1/FE_PHN16_sum_q_3
*138 reg1/FE_PHN15_n_18
*139 reg1/FE_PHN14_n_11
*140 reg1/FE_PHN13_n_9
*141 reg1/FE_PHN12_n_4
*142 reg1/FE_PHN11_n_7
*143 reg1/FE_PHN8_q_0_58
*144 reg1/FE_PHN7_n_18
*145 reg1/FE_PHN6_n_4
*146 reg1/FE_PHN5_n_5
*147 reg1/FE_PHN4_n_6
*148 reg1/FE_PHN3_n_9
*149 reg1/FE_PHN2_n_11
*150 reg1/FE_PHN0_q_0_58
*151 reg1/UNCONNECTED
*152 reg1/UNCONNECTED0
*153 reg1/UNCONNECTED1
*154 reg1/UNCONNECTED2
*155 reg1/UNCONNECTED3
*156 reg1/UNCONNECTED4
*157 reg1/UNCONNECTED5
*158 reg1/UNCONNECTED6
*159 reg1/n_0
*160 reg1/n_4
*161 reg1/n_5
*162 reg1/n_6
*163 reg1/n_7
*164 reg1/n_8
*165 reg1/n_9
*166 reg1/n_10
*167 reg1/n_11
*168 reg1/n_12
*169 reg1/n_13
*170 reg1/n_14
*171 reg1/n_15
*172 reg1/n_16
*173 reg1/n_17
*174 reg1/n_18
*175 reg1/n_19
*176 reg1/q\[0\]_58
*177 reg1/q\[3\]_61
*178 reg1/q\[4\]_62
*179 reg1/FE_PHC39_sum_q_7
*180 reg1/FE_PHC38_sum_q_1
*181 reg1/FE_PHC37_n_4
*182 reg1/FE_PHC36_q_0_58
*183 reg1/FE_PHC35_sum_q_1
*184 reg1/FE_PHC34_sum_q_6
*185 reg1/FE_PHC33_sum_q_5
*186 reg1/FE_PHC32_q_4_62
*187 reg1/FE_PHC31_n_7
*188 reg1/FE_PHC30_sum_q_6
*189 reg1/FE_PHC29_n_9
*190 reg1/FE_PHC28_sum_q_7
*191 reg1/FE_PHC27_sum_q_5
*192 reg1/FE_PHC26_n_10
*193 reg1/FE_PHC25_sum_q_3
*194 reg1/FE_PHC24_n_9
*195 reg1/FE_PHC23_n_7
*196 reg1/FE_PHC22_sum_q_7
*197 reg1/FE_PHC21_sum_q_2
*198 reg1/FE_PHC20_sum_q_6
*199 reg1/FE_PHC19_n_10
*200 reg1/FE_PHC18_sum_q_5
*201 reg1/FE_PHC17_sum_q_4
*202 reg1/FE_PHC16_sum_q_3
*203 reg1/FE_PHC15_n_18
*204 reg1/FE_PHC14_n_11
*205 reg1/FE_PHC13_n_9
*206 reg1/FE_PHC12_n_4
*207 reg1/FE_PHC11_n_7
*208 reg1/FE_PHC10_sum_q_5
*209 reg1/FE_PHC9_sum_q_6
*210 reg1/FE_PHC8_q_0_58
*211 reg1/FE_PHC7_n_18
*212 reg1/FE_PHC6_n_4
*213 reg1/FE_PHC5_n_5
*214 reg1/FE_PHC4_n_6
*215 reg1/FE_PHC3_n_9
*216 reg1/FE_PHC2_n_11
*217 reg1/FE_PHC1_sum_q_1
*218 reg1/FE_PHC0_q_0_58
*219 reg1/q_reg\[3\]
*220 reg1/q_reg\[2\]
*221 reg1/q_reg\[0\]
*222 reg1/q_reg\[4\]
*223 reg1/q_reg\[6\]
*224 reg1/q_reg\[5\]
*225 reg1/q_reg\[1\]
*226 reg1/q_reg\[7\]
*227 reg1/g27__2398
*228 reg1/g28__5107
*229 reg1/g29__6260
*230 reg1/g30__4319
*231 reg1/g31__8428
*232 reg1/g32__5526
*233 reg1/g33__6783
*234 reg1/g34__3680
*235 reg1/g35__1617
*236 reg1/g36__2802
*237 reg1/g37__1705
*238 reg1/g38__5122
*239 reg1/g39__8246
*240 reg1/g40__7098
*241 reg1/g41__6131
*242 reg1/g42__1881
*243 reg1/g43
*244 reg1/g44
*245 reg1/g45
*246 reg1/g46
*247 csa_tree_add1_add_30_16_groupi_g417__5115
*248 csa_tree_add1_add_30_16_groupi_g418__7482
*249 csa_tree_add1_add_30_16_groupi_g419__4733
*250 csa_tree_add1_add_30_16_groupi_g420__6161
*251 csa_tree_add1_add_30_16_groupi_g421__9315
*252 csa_tree_add1_add_30_16_groupi_g422__9945
*253 csa_tree_add1_add_30_16_groupi_g423__2883
*254 csa_tree_add1_add_30_16_groupi_g424__2346
*255 csa_tree_add1_add_30_16_groupi_g425__1666
*256 csa_tree_add1_add_30_16_groupi_g426__7410
*257 csa_tree_add1_add_30_16_groupi_g427__6417
*258 csa_tree_add1_add_30_16_groupi_g428__5477
*259 csa_tree_add1_add_30_16_groupi_g429__2398
*260 csa_tree_add1_add_30_16_groupi_g430__5107
*261 csa_tree_add1_add_30_16_groupi_g431__6260
*262 csa_tree_add1_add_30_16_groupi_g432__4319
*263 csa_tree_add1_add_30_16_groupi_g433__8428
*264 csa_tree_add1_add_30_16_groupi_g434__5526
*265 csa_tree_add1_add_30_16_groupi_g435__6783
*266 csa_tree_add1_add_30_16_groupi_g436__3680
*267 csa_tree_add1_add_30_16_groupi_g437__1617
*268 csa_tree_add1_add_30_16_groupi_g438__2802
*269 csa_tree_add1_add_30_16_groupi_g439__1705
*270 csa_tree_add1_add_30_16_groupi_g440__5122
*271 csa_tree_add1_add_30_16_groupi_g441__8246
*272 csa_tree_add1_add_30_16_groupi_g442__7098
*273 csa_tree_add1_add_30_16_groupi_g443__6131
*274 csa_tree_add1_add_30_16_groupi_g445__5115
*275 csa_tree_add1_add_30_16_groupi_g446__7482
*276 csa_tree_add1_add_30_16_groupi_g447__4733
*277 csa_tree_add1_add_30_16_groupi_g448__6161
*278 csa_tree_add1_add_30_16_groupi_g449__9315
*279 csa_tree_add1_add_30_16_groupi_g450__9945
*280 csa_tree_add1_add_30_16_groupi_g451__2883
*281 csa_tree_add1_add_30_16_groupi_g452__2346
*282 csa_tree_add1_add_30_16_groupi_g454__7410
*283 csa_tree_add1_add_30_16_groupi_g455__6417
*284 csa_tree_add1_add_30_16_groupi_g456__5477
*285 csa_tree_add1_add_30_16_groupi_g457__2398
*286 csa_tree_add1_add_30_16_groupi_g458__5107
*287 csa_tree_add1_add_30_16_groupi_g459__6260
*288 csa_tree_add1_add_30_16_groupi_g461__8428
*289 csa_tree_add1_add_30_16_groupi_g462__5526
*290 csa_tree_add1_add_30_16_groupi_g463__6783
*291 csa_tree_add1_add_30_16_groupi_g464__3680
*292 csa_tree_add1_add_30_16_groupi_g465__1617
*293 csa_tree_add1_add_30_16_groupi_g466__2802
*294 csa_tree_add1_add_30_16_groupi_g467__1705
*295 csa_tree_add1_add_30_16_groupi_g468__5122
*296 csa_tree_add1_add_30_16_groupi_g469__8246
*297 csa_tree_add1_add_30_16_groupi_g470__7098
*298 csa_tree_add1_add_30_16_groupi_g471__6131
*299 csa_tree_add1_add_30_16_groupi_g472__1881
*300 csa_tree_add1_add_30_16_groupi_g474__5115
*301 csa_tree_add1_add_30_16_groupi_g475__7482
*302 csa_tree_add1_add_30_16_groupi_g476__4733
*303 csa_tree_add1_add_30_16_groupi_g477__6161
*304 csa_tree_add1_add_30_16_groupi_g478__9315
*305 csa_tree_add1_add_30_16_groupi_g479__9945
*306 csa_tree_add1_add_30_16_groupi_g480__2883
*307 csa_tree_add1_add_30_16_groupi_g481__2346
*308 csa_tree_add1_add_30_16_groupi_g483
*309 csa_tree_add1_add_30_16_groupi_g484__1666
*310 csa_tree_add1_add_30_16_groupi_g485__7410
*311 csa_tree_add1_add_30_16_groupi_g486__6417
*312 csa_tree_add1_add_30_16_groupi_g487__5477
*313 csa_tree_add1_add_30_16_groupi_g488__2398
*314 csa_tree_add1_add_30_16_groupi_g490__5107
*315 csa_tree_add1_add_30_16_groupi_g491__6260
*316 csa_tree_add1_add_30_16_groupi_g492__4319
*317 csa_tree_add1_add_30_16_groupi_g493__8428
*318 csa_tree_add1_add_30_16_groupi_g494__5526
*319 csa_tree_add1_add_30_16_groupi_g495__6783
*320 csa_tree_add1_add_30_16_groupi_g496__3680
*321 csa_tree_add1_add_30_16_groupi_g497__1617
*322 csa_tree_add1_add_30_16_groupi_g498__2802
*323 csa_tree_add1_add_30_16_groupi_g499__1705
*324 csa_tree_add1_add_30_16_groupi_g500__5122
*325 csa_tree_add1_add_30_16_groupi_g501__8246
*326 csa_tree_add1_add_30_16_groupi_g502__7098
*327 csa_tree_add1_add_30_16_groupi_g503__6131
*328 csa_tree_add1_add_30_16_groupi_g504__1881
*329 csa_tree_add1_add_30_16_groupi_g505__5115
*330 csa_tree_add1_add_30_16_groupi_g506__7482
*331 csa_tree_add1_add_30_16_groupi_g507__4733
*332 csa_tree_add1_add_30_16_groupi_g510
*333 csa_tree_add1_add_30_16_groupi_g513
*334 g2
*335 g3
*336 g515
*337 g516


*PORTS

*1 I *C 78.48 0
*2 I *C 73.2 0
*3 I *C 68.88 0
*4 I *C 71.28 0
*5 I *C 76.56 0
*6 I *C 74.16 0
*7 I *C 68.505 0
*8 I *C 72.24 0
*9 I *C 64.56 133.94
*10 I *C 68.4 133.94
*11 I *C 70.8 133.94
*12 O *C 86.16 133.94
*13 O *C 142.08 72.35
*14 O *C 142.08 63.2
*15 O *C 0 64.42
*16 O *C 0 63.2
*17 O *C 56.4 133.94
*18 O *C 61.2 133.94
*19 O *C 76.56 133.94


*D_NET *1 0.00984947

*CONN
*P *1 I *C 78.48 0 *L 0
*I *330:B I *C 87.79 57.35 *L 0.00569 *D sky130_osu_sc_18T_ms__and2_1
*I *328:B I *C 79.91 44.03 *L 0.0042 *D sky130_osu_sc_18T_ms__nand2_l
*I *327:B I *C 79.8 49.95 *L 0.00545 *D sky130_osu_sc_18T_ms__nand2_1
*I *320:B I *C 87.19 44.03 *L 0.00545 *D sky130_osu_sc_18T_ms__nand2_1

*CAP
1 *1 0.00010128
2 *320:B 0.00013166
3 *1:5 6.826e-05
4 *1:6 0.00111838
5 *1:7 0.00372913
6 *1:8 0.00016144
7 *1:9 4.009e-05
8 *1:10 0.00059262
9 *1:11 0.00014441
10 *1:12 0.00029726
11 *1:14 3.054e-05
12 *1:15 0.00039177
13 *1:16 1.466e-05
14 *1:17 0.00035815
15 *1:19 0.00024806
16 *1:21 5.089e-05
17 *1:22 0.00026071
18 *1:24 0.00064706
19 *1:5 *5:5 0.00054368
20 *1:10 *22:3 0.00050129
21 *1:12 *174:2 0.00041813

*RES
1 *1:18 *1:21 0.579785
2 *330:B *1:21 9.24915
3 *1:17 *1:18 7.18274
4 *1:17 *1:20 0.246796
5 *1:19 *1:20 3.59549
6 *1:16 *1:19 0.264717
7 *1:15 *1:16 3.57757
8 *1:15 *1:23 1.12373
9 *1:22 *1:23 1.79775
10 *1:9 *1:22 9.24915
11 *320:B *1:9 97.5378
12 *1:24 *1:22 5.6449
13 *1:24 *1:11 8.77436
14 *1:11 *1:6 11.6742
15 *1:7 *1:6 40.328
16 *1 *1:7 1.14649
17 *1:11 *1:12 1.03078
18 *1:12 *1:13 2.80991
19 *1:10 *1:13 1.12373
20 *1:10 *1:5 13.3001
21 *1:5 *1:8 30.7844
22 *1:8 *327:B 78.3264
23 *1:12 *1:14 0.415709
24 *328:B *1:14 9.24915
*END

*D_NET *2 0.00903774

*CONN
*P *2 I *C 73.2 0 *L 0
*I *329:B I *C 71.28 49.95 *L 0.00569 *D sky130_osu_sc_18T_ms__and2_1
*I *324:B I *C 73.31 44.03 *L 0.00545 *D sky130_osu_sc_18T_ms__nand2_1
*I *323:B I *C 86.2 49.95 *L 0.00545 *D sky130_osu_sc_18T_ms__nand2_1
*I *322:B I *C 86.24 44.03 *L 0.00569 *D sky130_osu_sc_18T_ms__and2_1

*CAP
1 *2 0.00309042
2 *329:B 0.00019812
3 *322:B 1.941e-05
4 *2:5 0.00088063
5 *2:6 0.00017847
6 *2:7 0.00010427
7 *2:9 0.00104977
8 *2:11 3.544e-05
9 *2:12 0.00012994
10 *2:13 7.234e-05
11 *2:14 1.504e-05
12 *2:15 5e-05
13 *2:16 0.00056289
14 *2:17 0.00051637
15 *2:18 3.517e-05
16 *2:19 0.00015826
17 *2:21 0.000207
18 *2:5 *6:5 0.00091472
19 *2:5 *8:5 0.00081948

*RES
1 *2:17 *2:18 4.47886
2 *2:18 *2:21 0.264717
3 *2:21 *2:13 10.1456
4 *2:13 *2:14 30.7844
5 *2:14 *2:15 10.2022
6 *2:15 *323:B 21.8451
7 *2:17 *2:20 0.246796
8 *2:19 *2:20 0.896455
9 *322:B *2:19 9.24915
10 *2:12 *322:B 116.986
11 *2:11 *2:12 90.8738
12 *2:9 *2:11 781.723
13 *2:9 *2:10 29.9563
14 *2:6 *2:10 157.481
15 *2:6 *324:B 52.3676
16 *324:B *2:16 9.24915
17 *2:16 *2:5 12.8434
18 *2 *2:5 40.3328
19 *2:16 *2:7 16.0088
20 *2:7 *2:8 30.0152
21 *329:B *2:8 156.771
*END

*D_NET *3 0.00937797

*CONN
*P *3 I *C 68.88 0 *L 0
*I *331:B I *C 70.34 57.35 *L 0.00545 *D sky130_osu_sc_18T_ms__nand2_1
*I *326:B I *C 73.2 57.35 *L 0.00545 *D sky130_osu_sc_18T_ms__nand2_1
*I *321:A I *C 69.12 43.66 *L 0.00558 *D sky130_osu_sc_18T_ms__and2_1
*I *317:B I *C 77.51 44.03 *L 0.00545 *D sky130_osu_sc_18T_ms__nand2_1

*CAP
1 *3 0.00303573
2 *331:B 0.00011648
3 *3:5 0.00075859
4 *3:6 0.00020036
5 *3:7 0.00054777
6 *3:8 0.00023989
7 *3:9 0.00016093
8 *3:10 0.00071647
9 *3:11 7.955e-05
10 *3:12 8.43e-05
11 *3:13 2.959e-05
12 *3:14 6.846e-05
13 *3:15 0.00088305
14 *3:16 3.763e-05
15 *3:17 9.3e-07
16 *3:5 *4:5 0.00076825
17 *3:5 *7:5 0.00164999

*RES
1 *331:B *3:17 9.24915
2 *3:16 *3:17 0.579785
3 *3:15 *3:16 8.98532
4 *3:14 *3:15 0.557028
5 *3:13 *3:14 0.423052
6 *3:12 *3:13 0.557028
7 *3:10 *3:12 7.18757
8 *321:A *3:10 9.24915
9 *3:8 *3:10 0.718597
10 *3:8 *3:5 11.6742
11 *3 *3:5 40.3328
12 *3:8 *3:7 5.49377
13 *3:9 *3:7 7.53
14 *3:9 *3:11 1.16924
15 *317:B *3:11 9.24915
16 *331:B *3:6 58.5227
17 *326:B *3:6 175.568
*END

*D_NET *4 0.0101882

*CONN
*P *4 I *C 71.28 0 *L 0
*I *325:B I *C 67.26 44.03 *L 0.00545 *D sky130_osu_sc_18T_ms__nand2_1
*I *319:B I *C 77.4 49.95 *L 0.00545 *D sky130_osu_sc_18T_ms__nand2_1
*I *318:A I *C 67.95 56.98 *L 0.00548 *D sky130_osu_sc_18T_ms__nand2_1
*I *316:B I *C 75.31 57.35 *L 0.00545 *D sky130_osu_sc_18T_ms__nand2_1

*CAP
1 *4 0.00032553
2 *4:5 0.00357611
3 *4:6 0.00101625
4 *4:7 0.0002547
5 *4:8 0.0003342
6 *4:9 0.00066113
7 *4:10 0.00019753
8 *4:11 7.15e-06
9 *4:12 7.68e-05
10 *4:13 0.0001044
11 *4:14 0.00018371
12 *4:15 0.00039052
13 *4:16 9.023e-05
14 *4:17 0.00011472
15 *4:18 0.00011308
16 *4:19 0.00011015
17 *4:20 0.00124037
18 *4:21 2.603e-05
19 *4:22 2.665e-05
20 *4:23 0.00057071
21 *4:5 *3:5 0.00076825

*RES
1 *4 *4:12 4.05581
2 *4:12 *4:11 28.7567
3 *4:5 *4:11 331.628
4 *4:6 *4:5 45.5261
5 *4:7 *4:6 12.8251
6 *325:B *4:7 9.24915
7 *4:7 *4:13 2.24874
8 *4:13 *4:15 0.557028
9 *4:15 *4:16 3.57757
10 *4:16 *4:18 0.557028
11 *4:18 *4:20 1.14005
12 *4:20 *4:9 5.94627
13 *4:17 *4:9 7.53
14 *4:17 *4:19 0.078453
15 *319:B *4:19 9.24915
16 *4:20 *4:22 8.76932
17 *318:A *4:22 9.24915
18 *4:22 *4:23 0.066795
19 *4:23 *4:8 5.94627
20 *4:21 *4:8 1.47061
21 *4:14 *4:21 4.47566
22 *4:14 *4:10 9.37675
23 *4:10 *316:B 117.045
*END

*D_NET *5 0.0092481

*CONN
*P *5 I *C 76.56 0 *L 0
*I *330:A I *C 87.31 56.98 *L 0.00558 *D sky130_osu_sc_18T_ms__and2_1
*I *323:A I *C 87.16 50.32 *L 0.00548 *D sky130_osu_sc_18T_ms__nand2_1
*I *319:A I *C 78.36 50.32 *L 0.00548 *D sky130_osu_sc_18T_ms__nand2_1
*I *317:A I *C 78.47 43.66 *L 0.00548 *D sky130_osu_sc_18T_ms__nand2_1

*CAP
1 *5 0.00340001
2 *5:5 0.00010014
3 *5:6 0.00094953
4 *5:7 0.00010313
5 *5:8 6.402e-05
6 *5:9 1.989e-05
7 *5:10 0.00020645
8 *5:11 0.00035737
9 *5:12 5.183e-05
10 *5:13 0.00020637
11 *5:15 0.00011395
12 *5:16 3.375e-05
13 *5:17 3.405e-05
14 *5:18 9.647e-05
15 *5:19 0.00010442
16 *5:20 0.00022941
17 *5:22 0.00043749
18 *5:24 0.00031904
19 *5:26 0.00010172
20 *5:27 0.00108498
21 *5:5 *1:5 0.00054368
22 *5:6 *6:5 0.0006904

*RES
1 *5 *5:6 40.3328
2 *5:10 *5:6 11.0181
3 *5:10 *5:19 2.31089
4 *5:19 *5:20 1.3471
5 *317:A *5:20 9.24915
6 *5:20 *5:21 1.3471
7 *5:13 *5:21 0.539107
8 *5:13 *5:14 0.891619
9 *5:11 *5:14 0.539107
10 *5:11 *5:12 3.12693
11 *5:12 *5:15 0.557028
12 *5:15 *5:5 1.29838
13 *5:27 *5:5 8.77436
14 *5:27 *5:24 5.87631
15 *323:A *5:24 9.24915
16 *5:24 *5:25 0.896455
17 *5:22 *5:25 0.246796
18 *5:22 *5:23 5.38015
19 *5:23 *5:26 0.264717
20 *5:26 *5:9 10.1456
21 *5:7 *5:9 39.7254
22 *5:7 *5:8 60.7996
23 *5:8 *330:A 49.1666
24 *5:5 *5:16 0.927253
25 *5:16 *5:17 0.264717
26 *5:17 *5:18 0.445809
27 *319:A *5:18 9.24915
*END

*D_NET *6 0.00759987

*CONN
*P *6 I *C 74.16 0 *L 0
*I *325:A I *C 66.3 43.66 *L 0.00548 *D sky130_osu_sc_18T_ms__nand2_1
*I *322:A I *C 86.72 43.66 *L 0.00558 *D sky130_osu_sc_18T_ms__and2_1
*I *321:B I *C 68.64 44.03 *L 0.00569 *D sky130_osu_sc_18T_ms__and2_1
*I *320:A I *C 88.15 43.66 *L 0.00548 *D sky130_osu_sc_18T_ms__nand2_1

*CAP
1 *6 7.683e-05
2 *325:A 0.00019339
3 *322:A 0.00011539
4 *6:5 0.0006599
5 *6:6 0.00306792
6 *6:7 0.00013014
7 *6:8 0.00089542
8 *6:9 0.00025027
9 *6:10 5.587e-05
10 *6:11 0.00043553
11 *6:12 7.788e-05
12 *6:13 3.621e-05
13 *6:5 *2:5 0.00091472
14 *6:5 *5:6 0.0006904

*RES
1 *6 *6:10 0.878534
2 *6:10 *6:6 0.557028
3 *6:6 *6:5 39.4267
4 *6:14 *6:5 9.68405
5 *6:7 *6:14 0.539107
6 *6:7 *6:8 10.1456
7 *6:8 *6:12 1015.1
8 *6:12 *322:A 112.516
9 *322:A *320:A 117.045
10 *6:8 *6:9 253.598
11 *6:11 *6:9 215.293
12 *6:11 *6:13 120.948
13 *325:A *6:13 156.771
14 *6:13 *321:B 22.4964
*END

*D_NET *7 0.00904041

*CONN
*P *7 I *C 68.505 0 *L 0
*I *331:A I *C 69.38 56.98 *L 0.00548 *D sky130_osu_sc_18T_ms__nand2_1
*I *329:A I *C 71.76 50.32 *L 0.00558 *D sky130_osu_sc_18T_ms__and2_1
*I *328:A I *C 78.95 43.66 *L 0.00422 *D sky130_osu_sc_18T_ms__nand2_l
*I *318:B I *C 68.91 57.35 *L 0.00545 *D sky130_osu_sc_18T_ms__nand2_1

*CAP
1 *7 0.0026345
2 *331:A 0.00014087
3 *329:A 1.928e-05
4 *7:5 0.00039731
5 *7:6 0.00018057
6 *7:7 1.001e-05
7 *7:8 0.00014362
8 *7:9 0.00034113
9 *7:10 0.00085883
10 *7:11 0.00033396
11 *7:12 1.55e-05
12 *7:13 2.776e-05
13 *7:14 0.00013612
14 *7:15 9.86e-05
15 *7:16 0.00012903
16 *7:19 3.011e-05
17 *7:20 7.68e-05
18 *7:21 4.01e-05
19 *7:22 0.00066746
20 *7:23 0.00018406
21 *7:25 0.00015986
22 *7:26 0.00017878
23 *7:27 0.00046994
24 *7:29 0.00011622
25 *7:5 *3:5 0.00164999

*RES
1 *7:18 *7:7 59.233
2 *331:A *7:7 136.553
3 *331:A *7:16 9.24915
4 *7:16 *7:17 0.445809
5 *7:14 *7:17 0.561864
6 *318:B *7:14 9.24915
7 *7:8 *7:18 29.9563
8 *7:8 *7:21 78.7405
9 *7:26 *7:21 10.5962
10 *7:26 *7:28 0.539107
11 *7:27 *7:28 4.94743
12 *7:25 *7:27 0.557028
13 *7:25 *7:19 10.1277
14 *7:15 *7:19 77.9713
15 *329:A *7:15 23.4691
16 *7:13 *7:15 39.7254
17 *7:22 *7:13 14.6521
18 *7:22 *7:12 0.269553
19 *7:20 *7:12 0.872096
20 *7:9 *7:20 4.02822
21 *7:9 *7:6 0.539107
22 *7:24 *7:6 5.77404
23 *7:23 *7:24 1.08175
24 *7:23 *7:5 4.77394
25 *7 *7:5 5.55761
26 *7:24 *7:10 0.113124
27 *7:11 *7:10 8.20874
28 *7:11 *7:29 2.20451
29 *328:A *7:29 9.24915
*END

*D_NET *8 0.00903985

*CONN
*P *8 I *C 72.24 0 *L 0
*I *327:A I *C 78.84 50.32 *L 0.00548 *D sky130_osu_sc_18T_ms__nand2_1
*I *326:A I *C 72.24 56.98 *L 0.00548 *D sky130_osu_sc_18T_ms__nand2_1
*I *324:A I *C 72.35 43.66 *L 0.00548 *D sky130_osu_sc_18T_ms__nand2_1
*I *316:A I *C 76.27 56.98 *L 0.00548 *D sky130_osu_sc_18T_ms__nand2_1

*CAP
1 *8 0.00031763
2 *326:A 0.00045165
3 *316:A 2.457e-05
4 *8:5 0.00315648
5 *8:6 0.00102299
6 *8:7 0.00030752
7 *8:9 6.816e-05
8 *8:10 8.873e-05
9 *8:11 0.00014926
10 *8:12 5.67e-05
11 *8:13 0.00047711
12 *8:14 4.709e-05
13 *8:15 0.00076847
14 *8:17 0.00014132
15 *8:18 0.0007816
16 *8:19 0.00036109
17 *8:5 *2:5 0.00081948

*RES
1 *8:13 *8:14 4.92951
2 *8:14 *8:17 0.557028
3 *8:19 *8:17 5.38429
4 *8:19 *8:11 5.83314
5 *8:11 *8:12 1.33976
6 *316:A *8:12 9.24915
7 *326:A *316:A 312.121
8 *8:13 *8:16 0.539107
9 *8:15 *8:16 0.896455
10 *8:18 *8:15 8.84814
11 *8:18 *8:10 7.86937
12 *8:7 *8:10 3.73914
13 *8:9 *8:7 9.24915
14 *8:9 *324:A 58.5227
15 *8:7 *8:6 12.3928
16 *8:5 *8:6 35.3708
17 *8:5 *8:8 0.539107
18 *8 *8:8 4.95227
19 *327:A *8:15 9.24915
*END

*D_NET *9 0.0174329

*CONN
*P *9 I *C 64.56 133.94 *L 0
*I *226:CK I *C 93.81 89.54 *L 0.0155 *D sky130_osu_sc_18T_ms__dff_1
*I *225:CK I *C 68.78 89.54 *L 0.0155 *D sky130_osu_sc_18T_ms__dff_1
*I *224:CK I *C 76.32 71.04 *L 0.0155 *D sky130_osu_sc_18T_ms__dff_1
*I *223:CK I *C 84.79 76.22 *L 0.0155 *D sky130_osu_sc_18T_ms__dff_1
*I *222:CK I *C 68.73 62.9 *L 0.0155 *D sky130_osu_sc_18T_ms__dff_1
*I *221:CK I *C 73.57 89.54 *L 0.0155 *D sky130_osu_sc_18T_ms__dff_1
*I *220:CK I *C 57.23 89.54 *L 0.0155 *D sky130_osu_sc_18T_ms__dff_1
*I *219:CK I *C 57.23 76.22 *L 0.0155 *D sky130_osu_sc_18T_ms__dff_1

*CAP
1 *9:9 0.00035691
2 *9:10 3.452e-05
3 *9:11 0.00056973
4 *9:12 0.00105643
5 *9:13 0.00033982
6 *9:14 2.725e-05
7 *9:15 0.00179441
8 *9:16 6.083e-05
9 *9:17 4.715e-05
10 *9:18 0.00010063
11 *9:19 0.00021158
12 *9:20 0.00071554
13 *9:21 0.00013867
14 *9:22 0.0026629
15 *9:23 6.828e-05
16 *9:24 7.402e-05
17 *9:25 1.408e-05
18 *9:26 4.503e-05
19 *9:27 5.756e-05
20 *9:28 0.00014729
21 *9:29 7.094e-05
22 *9:30 0.00025455
23 *9:31 3.297e-05
24 *9:32 8.509e-05
25 *9:33 6.867e-05
26 *9:34 3.403e-05
27 *9:35 2.599e-05
28 *9:36 6.635e-05
29 *9:37 0.00057656
30 *9:38 6.131e-05
31 *9:39 0.00010575
32 *9:40 2.568e-05
33 *9:41 3.52e-05
34 *9:42 4.963e-05
35 *9:43 6.721e-05
36 *9:44 0.00069783
37 *9:45 8.326e-05
38 *9:46 0.00056751
39 *9:47 0.00123696
40 *9:48 0.00108428
41 *9:49 0.00067808
42 *9:50 0.00031182
43 *9:13 *11:16 0.00064427
44 *9:9 *50:5 0.00040065
45 *9:9 *119:13 0.0005611
46 *9:13 *132:5 0.00040608
47 *9:16 *159:17 0.00067854

*RES
1 *9:20 *9:19 3.46267
2 *9:18 *9:19 3.36879
3 *9:18 *9:17 4.80796
4 *9:39 *9:17 0.204173
5 *223:CK *9:39 9.24915
6 *9:20 *9:12 3.62138
7 *9:50 *9:12 1.02468
8 *9:45 *9:50 3.36879
9 *9:45 *9:32 4.56103
10 *9:10 *9:32 0.0500962
11 *224:CK *9:10 9.24915
12 *9:50 *9:9 0.698796
13 *9:11 *9:9 0.735752
14 *9:11 *9:37 3.36879
15 *9:37 *9:30 3.47708
16 *9:30 *9:26 3.57382
17 *9:23 *9:26 4.47566
18 *9:23 *9:24 0.158234
19 *222:CK *9:24 9.24915
20 *9:12 *9:14 5.41814
21 *9:14 *9:13 2.28369
22 *9:46 *9:13 2.3756
23 *9:35 *9:46 4.47566
24 *9:35 *9:38 0.0561475
25 *225:CK *9:38 9.24915
26 *9:44 *9:46 4.0371
27 *9:40 *9:44 0.0389615
28 *9:31 *9:40 4.47566
29 *9:31 *9:33 0.0561475
30 *220:CK *9:33 9.24915
31 *9:47 *9:44 3.57372
32 *9:49 *9:47 3.5853
33 *9:48 *9:49 3.36879
34 *9:48 *9:22 2.05691
35 *9:28 *9:22 8.79201
36 *9:25 *9:28 0.115058
37 *9:21 *9:25 4.47566
38 *9:21 *9 1.01091
39 *9:47 *9:42 5.41814
40 *9:16 *9:42 0.0389615
41 *9:27 *9:16 4.47566
42 *9:27 *9:29 0.107191
43 *219:CK *9:29 9.24915
44 *9:14 *9:15 0.318161
45 *9:34 *9:15 4.47566
46 *9:34 *9:36 0.0561475
47 *221:CK *9:36 9.24915
48 *9:15 *9:41 13.9781
49 *9:41 *9:43 0.0561475
50 *226:CK *9:43 9.24915
*END

*D_NET *10 0.0160204

*CONN
*P *10 I *C 68.4 133.94 *L 0
*I *234:A I *C 56.877 83.62 *L 0.00548 *D sky130_osu_sc_18T_ms__nor2_1
*I *233:A I *C 87.787 70.3 *L 0.00548 *D sky130_osu_sc_18T_ms__nor2_1
*I *232:A I *C 88.333 90.28 *L 0.00548 *D sky130_osu_sc_18T_ms__nor2_1
*I *231:A I *C 70.737 83.62 *L 0.00548 *D sky130_osu_sc_18T_ms__nor2_1
*I *230:A I *C 70.953 90.28 *L 0.00548 *D sky130_osu_sc_18T_ms__nor2_1
*I *229:A I *C 54.457 70.3 *L 0.00548 *D sky130_osu_sc_18T_ms__nor2_1
*I *228:A I *C 60.943 70.3 *L 0.00548 *D sky130_osu_sc_18T_ms__nor2_1
*I *227:A I *C 79.427 76.96 *L 0.00548 *D sky130_osu_sc_18T_ms__nor2_1

*CAP
1 *230:A 7.68e-06
2 *227:A 3.904e-05
3 *10:9 0.00042384
4 *10:10 0.00045317
5 *10:11 0.00026823
6 *10:12 0.00017333
7 *10:13 0.00376289
8 *10:14 0.00016433
9 *10:15 4.311e-05
10 *10:16 0.00039186
11 *10:17 0.00018245
12 *10:18 0.00029032
13 *10:20 0.0003467
14 *10:21 7.837e-05
15 *10:22 5.413e-05
16 *10:23 0.00090443
17 *10:24 0.00031333
18 *10:25 0.0001996
19 *10:26 3.662e-05
20 *10:27 4.365e-05
21 *10:28 0.00055897
22 *10:30 0.00048394
23 *10:31 0.00020595
24 *10:33 6.211e-05
25 *10:34 4.752e-05
26 *10:35 0.00022981
27 *10:36 0.00078545
28 *10:37 0.00014741
29 *10:39 0.00089186
30 *10:40 0.00023025
31 *10:41 0.00024462
32 *10:42 0.00104114
33 *10:43 0.00074738
34 *10:44 0.00044746
35 *10:45 0.00012913
36 *10:48 0.00099075
37 *10:9 *159:9 0.00059953

*RES
1 *10:33 *10:14 20.2179
2 *10:15 *10:14 97.5378
3 *10:12 *10:15 10.1456
4 *10:12 *10:46 0.539107
5 *10:44 *10:46 4.04614
6 *10:40 *10:44 0.557028
7 *10:40 *10:10 11.029
8 *10:10 *10:19 351.846
9 *10:18 *10:19 29.9563
10 *10:18 *10:26 195.786
11 *10:26 *10:48 9.24915
12 *10:48 *10:25 17.8114
13 *10:25 *10:32 156.771
14 *10:30 *10:32 29.9563
15 *10:30 *10:34 391.572
16 *10:34 *10:35 30.7255
17 *10:35 *233:A 156.002
18 *10:26 *10:29 39.7254
19 *227:A *10:29 22.6999
20 *10:11 *10:33 195.786
21 *10:28 *10:11 507.138
22 *10:27 *10:28 30.7255
23 *10:20 *10:27 312.831
24 *10:36 *10:20 16.4546
25 *10:36 *10:39 0.539107
26 *10:39 *10:22 17.8066
27 *10:9 *10:22 351.846
28 *10:9 *229:A 22.4964
29 *10:22 *10:24 30.7844
30 *10:24 *228:A 161.691
31 *10:17 *10:20 117.756
32 *10:17 *234:A 52.5706
33 *10:41 *10:11 10.5783
34 *10:41 *10:43 0.557028
35 *10:43 *10:45 7.20549
36 *10:31 *10:45 9.24915
37 *10:31 *230:A 156.06
38 *230:A *10:16 19.5076
39 *10:21 *10:16 488.399
40 *10:21 *10:23 60.7996
41 *10:23 *10:38 858.984
42 *10:37 *10:38 60.0304
43 *10:37 *232:A 46.9388
44 *10:45 *10:47 1.3471
45 *10:42 *10:47 0.539107
46 *10:42 *10:13 11.036
47 *10 *10:13 40.3328
48 *10:33 *231:A 23.2268
*END

*D_NET *11 0.0184267

*CONN
*P *11 I *C 70.8 133.94 *L 0
*I *246:A I *C 85.95 90.28 *L 0.00547 *D sky130_osu_sc_18T_ms__inv_1
*I *242:B1 I *C 87.3 84.725 *L 0.00545 *D sky130_osu_sc_18T_ms__aoi22_l
*I *241:B1 I *C 80.35 75.855 *L 0.00545 *D sky130_osu_sc_18T_ms__aoi22_l
*I *240:B1 I *C 88.71 71.405 *L 0.00545 *D sky130_osu_sc_18T_ms__aoi22_l
*I *239:B1 I *C 62.77 89.175 *L 0.00545 *D sky130_osu_sc_18T_ms__aoi22_l
*I *238:B1 I *C 55.38 71.405 *L 0.00545 *D sky130_osu_sc_18T_ms__aoi22_l
*I *237:B1 I *C 54.06 84.725 *L 0.00545 *D sky130_osu_sc_18T_ms__aoi22_l
*I *236:B1 I *C 74.3 84.725 *L 0.00545 *D sky130_osu_sc_18T_ms__aoi22_l
*I *235:B1 I *C 54.06 62.535 *L 0.00545 *D sky130_osu_sc_18T_ms__aoi22_l

*CAP
1 *241:B1 0.00014531
2 *239:B1 4.834e-05
3 *235:B1 5.28e-05
4 *11:10 0.0001273
5 *11:11 0.00073758
6 *11:12 0.00048745
7 *11:13 5.902e-05
8 *11:14 0.00030687
9 *11:15 8.209e-05
10 *11:16 0.00047672
11 *11:17 5.144e-05
12 *11:18 0.00026933
13 *11:19 0.00376289
14 *11:20 0.00031002
15 *11:21 5.385e-05
16 *11:22 0.00082429
17 *11:23 0.00033576
18 *11:24 4.866e-05
19 *11:25 0.0001945
20 *11:26 0.00012847
21 *11:27 9.454e-05
22 *11:28 0.00018075
23 *11:29 0.00022094
24 *11:30 0.00013743
25 *11:31 3.513e-05
26 *11:32 0.00019124
27 *11:33 5.392e-05
28 *11:34 0.00011372
29 *11:35 7.667e-05
30 *11:36 0.00058333
31 *11:37 0.0005124
32 *11:38 0.00035271
33 *11:39 0.00015814
34 *11:40 0.00024872
35 *11:41 0.00055555
36 *11:42 0.00012933
37 *11:44 6.469e-05
38 *11:45 0.00061712
39 *11:46 0.00056027
40 *11:47 3.067e-05
41 *11:48 0.00016223
42 *11:49 5.268e-05
43 *11:51 0.00112481
44 *11:52 0.00010097
45 *11:53 0.00023224
46 *11:54 9.705e-05
47 *11:55 4.012e-05
48 *11:56 0.0003994
49 *11:16 *9:13 0.00064427
50 *11:18 *29:2 0.00044774
51 *11:12 *119:11 0.00043653
52 *11:13 *159:14 0.00065534
53 *11:10 *150:10 0.0006134

*RES
1 *11:40 *11:41 3.14968
2 *11:41 *11:43 7.20549
3 *11:36 *11:43 0.539107
4 *11:36 *11:38 7.20549
5 *11:13 *11:38 9.24915
6 *11:13 *237:B1 39.0151
7 *11:38 *11:22 12.8543
8 *11:22 *11:28 624.952
9 *11:28 *11:29 120.948
10 *11:29 *239:B1 116.986
11 *239:B1 *11:31 78.7405
12 *11:31 *11:32 30.7255
13 *11:32 *11:33 156.712
14 *11:33 *11:16 30.7255
15 *11:47 *11:16 399.341
16 *11:45 *11:47 5.78532
17 *11:45 *11:20 4.81503
18 *11:42 *11:20 1.24436
19 *11:42 *11:30 4.69514
20 *11:17 *11:30 9.24915
21 *11:17 *236:B1 39.6239
22 *11:42 *11:44 0.67054
23 *11:44 *11:46 0.277693
24 *11:46 *11:50 2.25265
25 *11:48 *11:50 0.284267
26 *11:48 *11:53 0.698821
27 *11:53 *11:56 3.36879
28 *11:56 *11:15 4.80333
29 *11:52 *11:15 0.0326202
30 *11:52 *11:34 5.40865
31 *11:12 *11:34 4.98306
32 *11:11 *11:12 7.86937
33 *11:11 *11:39 4.65934
34 *240:B1 *11:39 9.24915
35 *11:34 *11:24 9.81101
36 *241:B1 *11:24 117.045
37 *11:53 *11:54 1.09475
38 *11:54 *11:55 0.277693
39 *11:55 *11:37 4.92652
40 *11:37 *11:14 10.5158
41 *11:14 *242:B1 195.076
42 *11:37 *11:10 14.7422
43 *11:10 *246:A 78.0302
44 *11:47 *11:49 0.427888
45 *11:49 *11:51 0.557028
46 *11:51 *11:19 12.3879
47 *11 *11:19 40.3328
48 *11:41 *11:27 87.9897
49 *11:26 *11:27 120.179
50 *11:26 *238:B1 39.7254
51 *11:35 *11:40 0.557028
52 *11:35 *11:18 4.03305
53 *11:23 *11:18 2.69904
54 *11:23 *11:25 0.539107
55 *11:25 *11:21 11.0469
56 *235:B1 *11:21 52.833
*END

*D_NET *12 0.00704176

*CONN
*P *12 O *C 86.16 133.94 *L 0.006
*I *226:Q O *C 99.09 90.28 *L 0 *D sky130_osu_sc_18T_ms__dff_1
*I *190:A I *C 99.78 83.62 *L 0.00446 *D sky130_osu_sc_18T_ms__buf_l

*CAP
1 *226:Q 1.993e-05
2 *12:3 0.00197147
3 *12:4 0.00376289
4 *12:5 0.00013934
5 *12:6 9.048e-05
6 *12:7 9.605e-05
7 *12:9 0.00044332
8 *12:10 7.215e-05
9 *12:11 0.00012436
10 *12:12 0.00032177

*RES